38

C          4.88036        3.25043        2.20201
C          4.61796        2.03710        2.83940
C          3.94076        1.02153        2.16172
C          3.52913        1.20953        0.84009
C          3.78052        2.43084        0.21105
C          4.45787        3.44791        0.88680
C          2.69744        0.13509        0.13404
C          3.44834       -1.19391        0.00836
C          4.64540       -1.25927       -0.70736
C          5.28486       -2.48538       -0.90393
C          4.73395       -3.66050       -0.38755
C          3.52409       -3.59879        0.30645
C          2.88505       -2.37288        0.50256
C          5.40172       -5.01474       -0.64060
C          5.75139       -5.71140        0.67699
C          5.25067       -6.98412        0.96192
C          5.59073       -7.62422        2.15416
C          6.44243       -6.99777        3.06599
C          6.96360       -5.73729        2.77363
C          6.62203       -5.09728        1.58068
H          5.40159        4.04225        2.72983
H          4.93297        1.88823        3.86684
H          3.71986        0.08943        2.67018
H          3.43170        2.60655       -0.80036
H          4.64477        4.39541        0.39331
H          2.43000        0.47272       -0.87809
H          1.76966       -0.00871        0.70725
H          5.07268       -0.35634       -1.12947
H          6.20548       -2.52155       -1.47546
H          3.07047       -4.50853        0.68381
H          1.93462       -2.34575        1.02351
H          6.32778       -4.88196       -1.21897
H          4.71054       -5.63862       -1.22647
H          4.60192       -7.48724        0.25309
H          5.19621       -8.61073        2.37181
H          6.70387       -7.49414        3.99427
H          7.63813       -5.25489        3.47383
H          7.03987       -4.12385        1.35191
