38

C         -1.24198        0.43947       -2.14830
C         -0.06383        0.17173       -2.84616
C          1.15629        0.12417       -2.16717
C          1.20159        0.33355       -0.78642
C          0.02145        0.61081       -0.09267
C         -1.19807        0.65917       -0.77211
C          2.53985        0.30728       -0.04140
C          3.25004       -1.04760       -0.13534
C          4.50614       -1.14196       -0.73569
C          5.15230       -2.37922       -0.82979
C          4.54985       -3.52733       -0.31124
C          3.30074       -3.42986        0.30262
C          2.65822       -2.19120        0.40462
C          5.22351       -4.89603       -0.46986
C          6.18506       -5.24444        0.67279
C          7.53332       -5.48630        0.39787
C          8.40666       -5.85313        1.42448
C          7.93566       -5.99148        2.72931
C          6.58723       -5.76854        3.00558
C          5.71314       -5.40174        1.97873
H         -2.19010        0.47511       -2.67514
H         -0.09592       -0.00146       -3.91599
H          2.06312       -0.08932       -2.72210
H          0.03625        0.78529        0.97779
H         -2.11332        0.86787       -0.22840
H          2.38859        0.54005        1.01914
H          3.17462        1.09706       -0.45914
H          4.98772       -0.26278       -1.14735
H          6.12158       -2.43496       -1.31168
H          2.81378       -4.30956        0.70557
H          1.68907       -2.13516        0.88608
H          5.76171       -4.90910       -1.42421
H          4.45801       -5.67742       -0.52937
H          7.91825       -5.39614       -0.61201
H          9.45399       -6.03485        1.20678
H          8.61450       -6.27499        3.52744
H          6.21583       -5.88179        4.01772
H          4.66779       -5.24046        2.21375
